<routes xmlns:xsi="http://www.w3.org/2001/XMLSchema-instance"
        xsi:noNamespaceSchemaLocation="http://sumo.dlr.de/xsd/routes_file.xsd">

  <vType id="t_tg"
         vClass="truck"
         accel="1.3"
         decel="4.0"
         emergencyDecel="7.0"
         length="7.1"
         maxSpeed="36.11"
         minGap="2.5"
         sigma="0.5"
         speedFactor="normc(1,0.05,0.2,2)"
         />
  
</routes>

<!-- tau="1" -->
