<additional>
    <edgeData id="e_r2ps_to_ach1_mgp_1" period="60" file="outputs/data_edges/e_r2ps_to_ach1_mgp.xml" edges="814259719 689277284#0 689277288#0 689277288#1 689277288#2 881567591#0 881567591#1 881567591#2" /> 
    <edgeData id="e_r2ps_to_ach1_mgp_2" period="60" file="outputs/data_edges/e_r2ps_to_ach1_mgp.xml" edges="689277284#1 689277284#2 689277281#7 689277286#0 689277286#1" />

    <edgeData id="e_r2ps_to_rp1" period="60" file="outputs/data_edges/e_rp1.xml" edges="689277284#1 689277284#2" />
    <edgeData id="e_r2pn_0_to_rp1" period="60" file="outputs/data_edges/e_rp1.xml" edges="689277282 881567590#0 881567590#1" />
    <edgeData id="e_r2pn_1_to_rp1" period="60" file="outputs/data_edges/e_rp1.xml" edges="1107701847.173 881567590#1" />
    <edgeData id="e_plsr_to_rp1" period="60" file="outputs/data_edges/e_rp1.xml" edges="22674672 591402342#0 591402342#1 689277290#0 689277290#1" /> 
    <edgeData id="e_grgn_to_rp1" period="60" file="outputs/data_edges/e_rp1.xml" edges="34778584#0 34778584#1" />
       
    <edgeData id="e_rp4_to_rp3" period="60" file="outputs/data_edges/e_rp4_to_rp3.xml" edges="22650422#0 22650422#1 22650422#2 22650422#3 22650422#4" />
    <edgeData id="e_rp2_to_rp3" period="60" file="outputs/data_edges/e_rp2_to_rp3.xml" edges="542209565 136182032#1" />
    <edgeData id="e_rp3_to_rp4" period="60" file="outputs/data_edges/e_rp3_to_rp4.xml" edges="22650432 254360502#1 254360502#2 254360502#3" />
    <edgeData id="e_rp5_to_rp4" period="60" file="outputs/data_edges/e_rp5_to_rp4.xml" edges="23749115#0 23749115#1 23749115#2" />    
    <edgeData id="e_ccb_to_rp4" period="60" file="outputs/data_edges/e_ccb_to_rp4.xml" edges="102165688#0 102165688#1 1136268465 190876198 28000507#1" />
</additional>
