<?xml version="1.0" encoding="UTF-8"?>

<routes xmlns:xsi="http://www.w3.org/2001/XMLSchema-instance" xsi:noNamespaceSchemaLocation="http://sumo.dlr.de/xsd/routes_file.xsd">
  <vTypeDistribution id="rt_t_pg_cfm_k_jm_m_lcm_e_kr"
                     vTypes="t_tg t_cfm_k t_jm_m t_lcm_e_kr"/>
  <vTypeDistribution id="rt_t_pg_cfm_k_jm_m_lcm_e_m"
                     vTypes="t_tg t_cfm_k t_jm_m t_lcm_e_m"/>
  <vTypeDistribution id="rt_t_pg_cfm_k_jm_a_lcm_e_kr"
                     vTypes="t_tg t_cfm_k t_jm_a t_lcm_e_kr"/>
  <vTypeDistribution id="rt_t_pg_cfm_k_jm_a_lcm_e_a"
                     vTypes="t_tg t_cfm_k t_jm_a t_lcm_e_a"/>
  <vTypeDistribution id="truck_truck"
                     vTypes="t_tg t_cfm_k t_jm_a t_lcm_e_a"/>
  
    <trip id="truck0" type="truck_truck" depart="0.00" departLane="best" from="23749390" to="102081702#1"/>
    <trip id="truck1" type="truck_truck" depart="4.31" departLane="best" departSpeed="max" from="-44419782#1" to="342586722#2"/>
    <trip id="truck2" type="truck_truck" depart="8.63" departLane="best" departSpeed="max" from="83674767#0" to="-120789326#1"/>
    <trip id="truck3" type="truck_truck" depart="12.94" departLane="best" from="100132094" to="-102146448#1"/>
    <trip id="truck4" type="truck_truck" depart="17.26" departLane="best" from="28027979#0" to="105196544#2"/>
    <trip id="truck5" type="truck_truck" depart="21.57" departLane="best" from="102077270#3" to="-28037992#5"/>
    <trip id="truck6" type="truck_truck" depart="25.88" departLane="best" departSpeed="max" from="241481354#0" to="157989173#2"/>
    <trip id="truck7" type="truck_truck" depart="30.20" departLane="best" from="-28030460#2" to="22568417"/>
    <trip id="truck8" type="truck_truck" depart="34.51" departLane="best" from="566138164" to="-100132095#0"/>
    <trip id="truck10" type="truck_truck" depart="43.14" departLane="best" departSpeed="max" from="99751843" to="-83675533#1"/>
    <trip id="truck11" type="truck_truck" depart="47.46" departLane="best" from="689277290#1" to="22650417#2"/>
    <trip id="truck13" type="truck_truck" depart="56.08" departLane="best" from="120588586#4" to="923329653"/>
    <trip id="truck14" type="truck_truck" depart="60.40" departLane="best" departSpeed="max" from="-88439558#5" to="159534243"/>
    <trip id="truck15" type="truck_truck" depart="64.71" departLane="best" from="717380722#1" to="206157097"/>
    <trip id="truck16" type="truck_truck" depart="69.03" departLane="best" from="28027468#3" to="104493119#4"/>
    <trip id="truck17" type="truck_truck" depart="73.34" departLane="best" from="-104493131#2" to="-44419254#0"/>
    <trip id="truck19" type="truck_truck" depart="81.97" departLane="best" from="23749256#1" to="-923157458"/>
    <trip id="truck20" type="truck_truck" depart="86.28" departLane="best" departSpeed="max" from="-83701765#4" to="-28531025#0"/>
    <trip id="truck21" type="truck_truck" depart="90.60" departLane="best" from="-44419470#3" to="88439548#1"/>
    <trip id="truck22" type="truck_truck" depart="94.91" departLane="best" departSpeed="max" from="241481353" to="22650446#1"/>
    <trip id="truck24" type="truck_truck" depart="103.54" departLane="best" from="24526908#2" to="-E25"/>
    <trip id="truck25" type="truck_truck" depart="107.85" departLane="best" from="-E44" to="23965518"/>
    <trip id="truck27" type="truck_truck" depart="116.48" departLane="best" from="-28037992#0" to="-102165319"/>
    <trip id="truck28" type="truck_truck" depart="120.80" departLane="best" from="-620127949#0" to="-570426101#0"/>
    <trip id="truck29" type="truck_truck" depart="125.11" departLane="best" departSpeed="max" from="-28027974#2" to="88439558#5"/>
    <trip id="truck30" type="truck_truck" depart="129.42" departLane="best" from="24526883#1" to="-100101558#3"/>
    <trip id="truck31" type="truck_truck" depart="133.74" departLane="best" departSpeed="max" from="83701769" to="102173037#3"/>
    <trip id="truck32" type="truck_truck" depart="138.05" departLane="best" from="164945658#1" to="-559475282#1"/>
    <trip id="truck33" type="truck_truck" depart="142.37" departLane="best" from="22468241" to="-83674640#3"/>
    <trip id="truck34" type="truck_truck" depart="146.68" departLane="best" from="-923329653" to="-316443377#0"/>
    <trip id="truck35" type="truck_truck" depart="150.99" departLane="best" departSpeed="max" from="E9" to="-105321647#0"/>
    <trip id="truck36" type="truck_truck" depart="155.31" departLane="best" departSpeed="max" from="-120588586#5" to="-23748877#2"/>
    <trip id="truck37" type="truck_truck" depart="159.62" departLane="best" departSpeed="max" from="51167745#0" to="102077254#1"/>
    <trip id="truck38" type="truck_truck" depart="163.94" departLane="best" from="E12" to="689277290#1"/>
    <trip id="truck39" type="truck_truck" depart="168.25" departLane="best" from="100132093#0" to="-28027978#0"/>
    <trip id="truck40" type="truck_truck" depart="172.56" departLane="best" from="44419254#4" to="23965518"/>
    <trip id="truck42" type="truck_truck" depart="181.19" departLane="best" departSpeed="max" from="814259719" to="-559475282#3"/>
    <trip id="truck44" type="truck_truck" depart="189.82" departLane="best" from="-83701765#1" to="717380720#3"/>
    <trip id="truck45" type="truck_truck" depart="194.14" departLane="best" from="-561322877#1" to="23903302#1"/>
    <trip id="truck46" type="truck_truck" depart="198.45" departLane="best" from="22650422#1" to="-241481354#0"/>
    <trip id="truck47" type="truck_truck" depart="202.76" departLane="best" from="44419843#1" to="1107701854#4"/>
    <trip id="truck48" type="truck_truck" depart="207.08" departLane="best" departSpeed="max" from="-100100940" to="-83674767#2"/>
    <trip id="truck49" type="truck_truck" depart="211.39" departLane="best" from="-100380474#0" to="83701765#4"/>
    <trip id="truck50" type="truck_truck" depart="215.71" departLane="best" departSpeed="max" from="83674622#0" to="619881875"/>
    <trip id="truck51" type="truck_truck" depart="220.02" departLane="best" departSpeed="max" from="83674622#0" to="88439563#2"/>
    <trip id="truck52" type="truck_truck" depart="224.33" departLane="best" departSpeed="max" from="-104493119#6" to="342586722#3"/>
    <trip id="truck53" type="truck_truck" depart="228.65" departLane="best" from="-391891766#7" to="-717380720#7"/>
    <trip id="truck54" type="truck_truck" depart="232.96" departLane="best" departSpeed="max" from="100132095#0" to="-28866079#1"/>
    <trip id="truck56" type="truck_truck" depart="241.59" departLane="best" departSpeed="max" from="E8" to="24526908#6"/>
    <trip id="truck57" type="truck_truck" depart="245.90" departLane="best" from="-102077254#2" to="105576888"/>
    <trip id="truck58" type="truck_truck" depart="250.22" departLane="best" departSpeed="max" from="-159663520#1" to="-34779710#1"/>
    <trip id="truck59" type="truck_truck" depart="254.53" departLane="best" from="83674640#2" to="22568417"/>
    <trip id="truck60" type="truck_truck" depart="258.85" departLane="best" from="-28037992#3" to="-316443377#0"/>
    <trip id="truck61" type="truck_truck" depart="263.16" departLane="best" departSpeed="max" from="-104493120" to="23749115#1"/>
    <trip id="truck62" type="truck_truck" depart="267.48" departLane="best" from="-28037992#0" to="83674647#2"/>
    <trip id="truck63" type="truck_truck" depart="271.79" departLane="best" from="717380721#2" to="-105196553#0"/>
    <trip id="truck64" type="truck_truck" depart="276.10" departLane="best" departSpeed="max" from="-28038008" to="28020753#2"/>
    <trip id="truck65" type="truck_truck" depart="280.42" departLane="best" departSpeed="max" from="1033371820" to="44419760#6"/>
    <trip id="truck67" type="truck_truck" depart="289.05" departLane="best" departSpeed="max" from="-105467442" to="102081702#0"/>
    <trip id="truck68" type="truck_truck" depart="293.36" departLane="best" departSpeed="max" from="100132095#0" to="103670697#2"/>
    <trip id="truck69" type="truck_truck" depart="297.67" departLane="best" departSpeed="max" from="28037997#0" to="-28021111#3.20"/>
    <trip id="truck70" type="truck_truck" depart="301.99" departLane="best" from="-99751844#0" to="-83675541"/>
    <trip id="truck71" type="truck_truck" depart="306.30" departLane="best" from="717380722#1" to="-493337033"/>
    <trip id="truck72" type="truck_truck" depart="310.62" departLane="best" departSpeed="max" from="-28027021#0" to="102146447#1"/>
    <trip id="truck73" type="truck_truck" depart="314.93" departLane="best" from="102077270#4" to="717380717#0"/>
    <trip id="truck74" type="truck_truck" depart="319.25" departLane="best" from="157989175#3" to="104493121#3"/>
    <trip id="truck75" type="truck_truck" depart="323.56" departLane="best" departSpeed="max" from="E9" to="620120797"/>
    <trip id="truck76" type="truck_truck" depart="327.87" departLane="best" departSpeed="max" from="E11" to="83701765#2"/>
    <trip id="truck78" type="truck_truck" depart="336.50" departLane="best" departSpeed="max" from="104493121#0" to="-290304847"/>
    <trip id="truck79" type="truck_truck" depart="340.82" departLane="best" from="391891766#7" to="44419760#6"/>
    <trip id="truck80" type="truck_truck" depart="345.13" departLane="best" departSpeed="max" from="99751843" to="E36"/>
    <trip id="truck81" type="truck_truck" depart="349.44" departLane="best" departSpeed="max" from="159663520#0" to="28027975"/>
    <trip id="truck82" type="truck_truck" depart="353.76" departLane="best" from="-23748761#5" to="-717380720#5"/>
    <trip id="truck83" type="truck_truck" depart="358.07" departLane="best" from="-103670697#4" to="22468241"/>
    <trip id="truck84" type="truck_truck" depart="362.39" departLane="best" from="104493157" to="-620127951#0"/>
    <trip id="truck85" type="truck_truck" depart="366.70" departLane="best" from="-23748877#4" to="907839368#2"/>
    <trip id="truck86" type="truck_truck" depart="371.01" departLane="best" from="104493131#3" to="-28027978#0"/>
    <trip id="truck87" type="truck_truck" depart="375.33" departLane="best" departSpeed="max" from="22650366" to="28021910#0"/>
    <trip id="truck88" type="truck_truck" depart="379.64" departLane="best" from="-83674652#0" to="-44420691#1"/>
    <trip id="truck89" type="truck_truck" depart="383.96" departLane="best" departSpeed="max" from="22650366" to="228994136#0"/>
    <trip id="truck90" type="truck_truck" depart="388.27" departLane="best" from="100101558#4" to="222910864#1"/>
    <trip id="truck91" type="truck_truck" depart="392.59" departLane="best" departSpeed="max" from="109868571#0" to="881567590#1"/>
    <trip id="truck92" type="truck_truck" depart="396.90" departLane="best" departSpeed="max" from="-28038008" to="-100101558#3"/>
    <trip id="truck93" type="truck_truck" depart="401.21" departLane="best" from="28000506#0" to="-717380723#2"/>
    <trip id="truck94" type="truck_truck" depart="405.53" departLane="best" from="-104493121#1" to="-290304847"/>
    <trip id="truck95" type="truck_truck" depart="409.84" departLane="best" from="-391891766#7" to="881567588"/>
    <trip id="truck96" type="truck_truck" depart="414.16" departLane="best" departSpeed="max" from="83674627" to="-717380723#2"/>
    <trip id="truck97" type="truck_truck" depart="418.47" departLane="best" departSpeed="max" from="-83701765#4" to="-28014492#1"/>
    <trip id="truck99" type="truck_truck" depart="427.10" departLane="best" from="22650446#0" to="E13"/>
    <trip id="truck100" type="truck_truck" depart="431.41" departLane="best" from="24520408#3" to="-100132095#2"/>
    <trip id="truck101" type="truck_truck" depart="435.73" departLane="best" from="-619881884" to="-717380723#10"/>
    <trip id="truck102" type="truck_truck" depart="440.04" departLane="best" from="254360506#1" to="88439558#0"/>
    <trip id="truck103" type="truck_truck" depart="444.35" departLane="best" from="-120588586#1" to="159534243"/>
    <trip id="truck104" type="truck_truck" depart="448.67" departLane="best" departSpeed="max" from="-44419760#6" to="22650417#4"/>
    <trip id="truck105" type="truck_truck" depart="452.98" departLane="best" from="23749115#1" to="-559475282#4"/>
    <trip id="truck106" type="truck_truck" depart="457.30" departLane="best" from="104493121#4" to="83674647#2"/>
    <trip id="truck107" type="truck_truck" depart="461.61" departLane="best" from="689277289#1" to="-157986565#2"/>
    <trip id="truck108" type="truck_truck" depart="465.93" departLane="best" departSpeed="max" from="100132095#0" to="620127931#0"/>
    <trip id="truck109" type="truck_truck" depart="470.24" departLane="best" from="100101558#2" to="371925364"/>
    <trip id="truck110" type="truck_truck" depart="474.55" departLane="best" from="23749363#0" to="-559475282#0"/>
    <trip id="truck111" type="truck_truck" depart="478.87" departLane="best" departSpeed="max" from="290304847" to="159229373#1"/>
    <trip id="truck112" type="truck_truck" depart="483.18" departLane="best" from="-104493122" to="-717380723#9"/>
    <trip id="truck113" type="truck_truck" depart="487.50" departLane="best" from="-620127942" to="-221257123#6"/>
    <trip id="truck115" type="truck_truck" depart="496.12" departLane="best" from="-620127933#0" to="83674642#1"/>
    <trip id="truck116" type="truck_truck" depart="500.44" departLane="best" from="83675520#0" to="-28531025#0"/>
    <trip id="truck117" type="truck_truck" depart="504.75" departLane="best" from="-44420537#0" to="760744245"/>
    <trip id="truck118" type="truck_truck" depart="509.07" departLane="best" from="99885096#2" to="228994136#3"/>
    <trip id="truck119" type="truck_truck" depart="513.38" departLane="best" from="717380723#1" to="99751842"/>
    <trip id="truck120" type="truck_truck" depart="517.69" departLane="best" departSpeed="max" from="570426101#0" to="-717380723#6"/>
    <trip id="truck121" type="truck_truck" depart="522.01" departLane="best" from="-102077254#1" to="28037992#5"/>
    <trip id="truck122" type="truck_truck" depart="526.32" departLane="best" from="546662925#2" to="717380718#1"/>
    <trip id="truck123" type="truck_truck" depart="530.64" departLane="best" departSpeed="max" from="570426101#0" to="561322877#3"/>
    <trip id="truck124" type="truck_truck" depart="534.95" departLane="best" from="44420735#1" to="-174897333#3"/>
    <trip id="truck125" type="truck_truck" depart="539.27" departLane="best" from="-807805157#0" to="689277286#1"/>
    <trip id="truck126" type="truck_truck" depart="543.58" departLane="best" from="102146448#0" to="-807805157#2"/>
    <trip id="truck127" type="truck_truck" depart="547.89" departLane="best" from="51167745#5" to="-371925354"/>
    <trip id="truck129" type="truck_truck" depart="556.52" departLane="best" from="-23903302#0" to="100101562"/>
    <trip id="truck130" type="truck_truck" depart="560.84" departLane="best" from="E32" to="-120789326#2"/>
    <trip id="truck131" type="truck_truck" depart="565.15" departLane="best" departSpeed="max" from="907839367" to="-206157073#0"/>
    <trip id="truck133" type="truck_truck" depart="573.78" departLane="best" from="99885096#3" to="-561322877#1"/>
    <trip id="truck134" type="truck_truck" depart="578.09" departLane="best" departSpeed="max" from="28037997#0" to="-83674640#3"/>
    <trip id="truck135" type="truck_truck" depart="582.41" departLane="best" from="22650417#0" to="105321674"/>
    <trip id="truck136" type="truck_truck" depart="586.72" departLane="best" departSpeed="max" from="-88439574#1" to="-206157073#4"/>
    <trip id="truck138" type="truck_truck" depart="595.35" departLane="best" departSpeed="max" from="-100100940" to="83701760#3"/>
    <trip id="truck139" type="truck_truck" depart="599.66" departLane="best" departSpeed="max" from="120789326#1" to="28027975"/>
    <trip id="truck140" type="truck_truck" depart="603.98" departLane="best" departSpeed="max" from="290304847" to="28020970#1"/>
    <trip id="truck141" type="truck_truck" depart="608.29" departLane="best" from="83675533#1" to="-105196553#0"/>
    <trip id="truck142" type="truck_truck" depart="612.61" departLane="best" from="254362790#0" to="-83675520#1"/>
    <trip id="truck143" type="truck_truck" depart="616.92" departLane="best" departSpeed="max" from="28030459#0" to="-717380723#3"/>
    <trip id="truck145" type="truck_truck" depart="625.55" departLane="best" from="174897333#3" to="102067748#0"/>
    <trip id="truck146" type="truck_truck" depart="629.86" departLane="best" from="570426101#3" to="157989176#0"/>
    <trip id="truck147" type="truck_truck" depart="634.18" departLane="best" departSpeed="max" from="-100100940" to="620127946#2"/>
    <trip id="truck149" type="truck_truck" depart="642.80" departLane="best" from="24520408#4" to="-1033371821"/>
    <trip id="truck150" type="truck_truck" depart="647.12" departLane="best" from="102077270#2" to="-290304847"/>
    <trip id="truck151" type="truck_truck" depart="651.43" departLane="best" departSpeed="max" from="1033371820" to="83674642#2"/>
    <trip id="truck152" type="truck_truck" depart="655.75" departLane="best" from="-104493151#1" to="105467444#1"/>
    <trip id="truck153" type="truck_truck" depart="660.06" departLane="best" from="23749079#1.237" to="-83675530#2"/>
    <trip id="truck154" type="truck_truck" depart="664.37" departLane="best" departSpeed="max" from="28000508" to="-34779710#1"/>
    <trip id="truck155" type="truck_truck" depart="668.69" departLane="best" departSpeed="max" from="-28027185" to="102081702#0"/>
    <trip id="truck156" type="truck_truck" depart="673.00" departLane="best" departSpeed="max" from="-28038161" to="104493115#3"/>
    <trip id="truck157" type="truck_truck" depart="677.32" departLane="best" from="717380718#0" to="-105321647#0"/>
    <trip id="truck158" type="truck_truck" depart="681.63" departLane="best" departSpeed="max" from="-E36" to="23749079#1.237"/>
    <trip id="truck159" type="truck_truck" depart="685.95" departLane="best" from="104493139#1" to="-44420537#2"/>
    <trip id="truck160" type="truck_truck" depart="690.26" departLane="best" from="-24526908#0" to="-100132095#0"/>
    <trip id="truck161" type="truck_truck" depart="694.57" departLane="best" from="-105467444#0" to="-104493121#2"/>
    <trip id="truck162" type="truck_truck" depart="698.89" departLane="best" from="26104213#0" to="E22"/>
    <trip id="truck163" type="truck_truck" depart="703.20" departLane="best" departSpeed="max" from="83674767#0" to="22674680#5.197"/>
    <trip id="truck164" type="truck_truck" depart="707.52" departLane="best" departSpeed="max" from="28030459#0" to="105196544#1"/>
    <trip id="truck165" type="truck_truck" depart="711.83" departLane="best" from="620127937" to="157989176#0"/>
    <trip id="truck166" type="truck_truck" depart="716.14" departLane="best" departSpeed="max" from="1033371820" to="-51167746#0"/>
    <trip id="truck167" type="truck_truck" depart="720.46" departLane="best" from="23748652#1" to="-620120792"/>
    <trip id="truck168" type="truck_truck" depart="724.77" departLane="best" departSpeed="max" from="-104493124" to="620127942"/>
    <trip id="truck169" type="truck_truck" depart="729.09" departLane="best" departSpeed="max" from="-44419760#6" to="-83674651#1"/>
    <trip id="truck170" type="truck_truck" depart="733.40" departLane="best" from="154859701" to="-23748652#0"/>
    <trip id="truck171" type="truck_truck" depart="737.71" departLane="best" from="28027469#2" to="-105196530#0"/>
    <trip id="truck172" type="truck_truck" depart="742.03" departLane="best" from="99885096#5" to="157986560#2"/>
    <trip id="truck173" type="truck_truck" depart="746.34" departLane="best" from="E42" to="-28038145#0"/>
    <trip id="truck174" type="truck_truck" depart="750.66" departLane="best" from="100132093#0" to="83674647#2"/>
    <trip id="truck176" type="truck_truck" depart="759.29" departLane="best" from="717380720#3" to="34779710#1"/>
    <trip id="truck178" type="truck_truck" depart="767.91" departLane="best" from="100101558#4" to="28038145#2"/>
    <trip id="truck179" type="truck_truck" depart="772.23" departLane="best" from="157989171" to="22650417#1"/>
    <trip id="truck180" type="truck_truck" depart="776.54" departLane="best" from="-28030460#2" to="-316443377#0"/>
    <trip id="truck183" type="truck_truck" depart="789.48" departLane="best" departSpeed="max" from="-206157097" to="102173037#5"/>
    <trip id="truck186" type="truck_truck" depart="802.43" departLane="best" from="-342586722#1" to="-120588585#0"/>
    <trip id="truck187" type="truck_truck" depart="806.74" departLane="best" from="-100380474#0" to="-157984988#3"/>
    <trip id="truck188" type="truck_truck" depart="811.05" departLane="best" departSpeed="max" from="E9" to="-88439548#1"/>
    <trip id="truck189" type="truck_truck" depart="815.37" departLane="best" departSpeed="max" from="241481354#0" to="-44419470#6"/>
    <trip id="truck190" type="truck_truck" depart="819.68" departLane="best" from="923157461" to="-28037997#0"/>
    <trip id="truck191" type="truck_truck" depart="824.00" departLane="best" from="-100380474#2" to="-241481354#0"/>
    <trip id="truck192" type="truck_truck" depart="828.31" departLane="best" from="-28027188#2" to="356792299#0"/>
    <trip id="truck193" type="truck_truck" depart="832.63" departLane="best" from="-120588586#4" to="-102145981#4"/>
    <trip id="truck195" type="truck_truck" depart="841.25" departLane="best" departSpeed="max" from="99751843" to="100101559"/>
    <trip id="truck196" type="truck_truck" depart="845.57" departLane="best" from="717380718#1" to="22650414#0.19"/>
    <trip id="truck197" type="truck_truck" depart="849.88" departLane="best" from="-44420660#1" to="-88439548#0"/>
    <trip id="truck198" type="truck_truck" depart="854.20" departLane="best" from="100376004" to="99885096#2"/>
    <trip id="truck199" type="truck_truck" depart="858.51" departLane="best" departSpeed="max" from="105196530#0" to="-83675541"/>
    <trip id="truck200" type="truck_truck" depart="862.82" departLane="best" from="717380717#3" to="-559475282#2"/>
    <trip id="truck201" type="truck_truck" depart="867.14" departLane="best" departSpeed="max" from="-109868571#1" to="907839368#2"/>
    <trip id="truck202" type="truck_truck" depart="871.45" departLane="best" from="23749256#1" to="-570426101#5"/>
    <trip id="truck203" type="truck_truck" depart="875.77" departLane="best" from="28027470#1" to="102145963"/>
    <trip id="truck204" type="truck_truck" depart="880.08" departLane="best" from="-44419760#5" to="-51167745#7"/>
    <trip id="truck206" type="truck_truck" depart="888.71" departLane="best" departSpeed="max" from="83674627" to="-44420537#2"/>
    <trip id="truck207" type="truck_truck" depart="893.02" departLane="best" from="102165313" to="22674680#0"/>
    <trip id="truck209" type="truck_truck" depart="901.65" departLane="best" departSpeed="max" from="-28027974#2" to="222910864#0"/>
    <trip id="truck210" type="truck_truck" depart="905.97" departLane="best" departSpeed="max" from="-83674642#2" to="-717380723#4"/>
    <trip id="truck211" type="truck_truck" depart="910.28" departLane="best" from="-104493151#2" to="28027975"/>
    <trip id="truck212" type="truck_truck" depart="914.59" departLane="best" from="-104493131#2" to="44419872#1"/>
    <trip id="truck213" type="truck_truck" depart="918.91" departLane="best" departSpeed="max" from="-105321639" to="-316443377#1"/>
    <trip id="truck214" type="truck_truck" depart="923.22" departLane="best" from="28026990#5" to="-83674622#0"/>
    <trip id="truck215" type="truck_truck" depart="927.54" departLane="best" departSpeed="max" from="221257123#4" to="104493115#3"/>
    <trip id="truck216" type="truck_truck" depart="931.85" departLane="best" from="26104213#0" to="-102077270#5"/>
    <trip id="truck217" type="truck_truck" depart="936.16" departLane="best" from="316443377#1" to="-221257123#4"/>
    <trip id="truck218" type="truck_truck" depart="940.48" departLane="best" from="120588586#4" to="342586722#4"/>
    <trip id="truck219" type="truck_truck" depart="944.79" departLane="best" from="-28026990#6" to="-292643664#4"/>
    <trip id="truck221" type="truck_truck" depart="953.42" departLane="best" from="E28" to="24526883#0"/>
    <trip id="truck222" type="truck_truck" depart="957.74" departLane="best" from="-44420660#1" to="-160615651#4"/>
    <trip id="truck223" type="truck_truck" depart="962.05" departLane="best" departSpeed="max" from="-28027085#1" to="-371925354"/>
    <trip id="truck224" type="truck_truck" depart="966.36" departLane="best" from="-28026990#0.187" to="102077254#1"/>
    <trip id="truck225" type="truck_truck" depart="970.68" departLane="best" departSpeed="max" from="120588585#0" to="-620120792"/>
    <trip id="truck226" type="truck_truck" depart="974.99" departLane="best" departSpeed="max" from="28027183#0" to="-22492931#5"/>
    <trip id="truck227" type="truck_truck" depart="979.31" departLane="best" from="717380723#8" to="-104493131#2"/>
    <trip id="truck228" type="truck_truck" depart="983.62" departLane="best" from="807805157#1" to="180389210"/>
    <trip id="truck229" type="truck_truck" depart="987.93" departLane="best" from="-102173037#3" to="102145981#0"/>
    <trip id="truck230" type="truck_truck" depart="992.25" departLane="best" from="-28026990#5" to="-104493121#4"/>
    <trip id="truck231" type="truck_truck" depart="996.56" departLane="best" from="907839368#0" to="104493119#3"/>
    <trip id="truck232" type="truck_truck" depart="1000.88" departLane="best" from="916760969" to="100101562"/>
    <trip id="truck233" type="truck_truck" depart="1005.19" departLane="best" from="164945661#1" to="-717380723#9"/>
    <trip id="truck234" type="truck_truck" depart="1009.50" departLane="best" departSpeed="max" from="51167745#0" to="-356789687"/>
    <trip id="truck235" type="truck_truck" depart="1013.82" departLane="best" departSpeed="max" from="109868571#0" to="-102146448#1"/>
    <trip id="truck236" type="truck_truck" depart="1018.13" departLane="best" from="102077270#3" to="689277289#1"/>
    <trip id="truck237" type="truck_truck" depart="1022.45" departLane="best" departSpeed="max" from="E45" to="807805157#2"/>
    <trip id="truck238" type="truck_truck" depart="1026.76" departLane="best" from="23031244#3" to="22674672"/>
    <trip id="truck239" type="truck_truck" depart="1031.08" departLane="best" from="28866079#1" to="-88439566"/>
    <trip id="truck240" type="truck_truck" depart="1035.39" departLane="best" from="28021111#2" to="-105467444#2"/>
    <trip id="truck241" type="truck_truck" depart="1039.70" departLane="best" from="100101558#0" to="-102146448#1"/>
    <trip id="truck242" type="truck_truck" depart="1044.02" departLane="best" departSpeed="max" from="22650366" to="-717380719#0"/>
    <trip id="truck243" type="truck_truck" depart="1048.33" departLane="best" from="28027284#2" to="102165313"/>
    <trip id="truck244" type="truck_truck" depart="1052.65" departLane="best" departSpeed="max" from="28026985#0" to="83675540#3"/>
    <trip id="truck245" type="truck_truck" depart="1056.96" departLane="best" from="254360505#1" to="881567589"/>
    <trip id="truck246" type="truck_truck" depart="1061.27" departLane="best" from="100132095#2" to="157989173#1"/>
    <trip id="truck247" type="truck_truck" depart="1065.59" departLane="best" departSpeed="max" from="241481353" to="83674652#1"/>
    <trip id="truck249" type="truck_truck" depart="1074.22" departLane="best" departSpeed="max" from="-28002710" to="-83674622#0"/>
    <trip id="truck250" type="truck_truck" depart="1078.53" departLane="best" departSpeed="max" from="316443377#0" to="174897340"/>
    <trip id="truck251" type="truck_truck" depart="1082.84" departLane="best" from="51167745#3" to="-22492931#1"/>
    <trip id="truck252" type="truck_truck" depart="1087.16" departLane="best" from="907839368#3" to="104493151#4"/>
    <trip id="truck253" type="truck_truck" depart="1091.47" departLane="best" from="104493139#0" to="-120588585#0"/>
    <trip id="truck254" type="truck_truck" depart="1095.79" departLane="best" from="-717380720#1" to="-493337033"/>
    <trip id="truck255" type="truck_truck" depart="1100.10" departLane="best" from="105196553#2" to="916754558#0"/>
    <trip id="truck256" type="truck_truck" depart="1104.42" departLane="best" from="923157464#0" to="E44"/>
    <trip id="truck257" type="truck_truck" depart="1108.73" departLane="best" departSpeed="max" from="28000508" to="-570426101#0"/>
    <trip id="truck258" type="truck_truck" depart="1113.04" departLane="best" departSpeed="max" from="-102145981#0" to="23749256#2"/>
    <trip id="truck259" type="truck_truck" depart="1117.36" departLane="best" from="1024920555#0" to="254360502#3"/>
    <trip id="truck261" type="truck_truck" depart="1125.99" departLane="best" departSpeed="max" from="22492931#0" to="23749363#1"/>
    <trip id="truck262" type="truck_truck" depart="1130.30" departLane="best" departSpeed="max" from="27999818#0" to="689277286#0"/>
    <trip id="truck264" type="truck_truck" depart="1138.93" departLane="best" from="51167745#2" to="88439563#2"/>
    <trip id="truck265" type="truck_truck" depart="1143.24" departLane="best" from="570426101#1" to="157989543#0"/>
    <trip id="truck266" type="truck_truck" depart="1147.56" departLane="best" from="-102145993#0" to="83674642#1"/>
    <trip id="truck267" type="truck_truck" depart="1151.87" departLane="best" from="-717380720#3" to="923157460"/>
    <trip id="truck268" type="truck_truck" depart="1156.18" departLane="best" from="997771259#0" to="105467442"/>
    <trip id="truck269" type="truck_truck" depart="1160.50" departLane="best" from="E42" to="28000507#1"/>
    <trip id="truck270" type="truck_truck" depart="1164.81" departLane="best" from="-157986560#1" to="100380474#2"/>
    <trip id="truck271" type="truck_truck" depart="1169.13" departLane="best" departSpeed="max" from="371925354" to="-28038144"/>
    <trip id="truck272" type="truck_truck" depart="1173.44" departLane="best" from="157989175#1" to="83701765#4"/>