<?xml version="1.0" encoding="UTF-8"?>

<routes xmlns:xsi="http://www.w3.org/2001/XMLSchema-instance" xsi:noNamespaceSchemaLocation="http://sumo.dlr.de/xsd/routes_file.xsd">
  <vTypeDistribution id="rp_t_pg_cfm_k_jm_m_lcm_e_kr"
                     vTypes="t_pg t_cfm_k t_jm_m t_lcm_e_kr"/>
  <vTypeDistribution id="rp_t_pg_cfm_k_jm_m_lcm_e_m"
                     vTypes="t_pg t_cfm_k t_jm_m t_lcm_e_m"/>
  <vTypeDistribution id="rp_t_pg_cfm_k_jm_a_lcm_e_kr"
                     vTypes="t_pg t_cfm_k t_jm_a t_lcm_e_kr"/>
  <vTypeDistribution id="rp_t_pg_cfm_k_jm_a_lcm_e_a"
                     vTypes="t_pg t_cfm_k t_jm_a t_lcm_e_a"/>
  <vTypeDistribution id="veh_passenger"
                     vTypes="t_pg t_cfm_k t_jm_a t_lcm_e_a"/>
  
    <trip id="veh0" type="veh_passenger" depart="0.00" departLane="best" departSpeed="max" from="241481353" to="-102145981#4"/>
    <trip id="veh1" type="veh_passenger" depart="2.88" departLane="best" from="570426101#1" to="-44419843#0"/>
    <trip id="veh2" type="veh_passenger" depart="5.75" departLane="best" from="-292643664#10.7" to="28020971#1"/>
    <trip id="veh3" type="veh_passenger" depart="8.63" departLane="best" departSpeed="max" from="83674771" to="160615651#0"/>
    <trip id="veh4" type="veh_passenger" depart="11.50" departLane="best" from="102145996#0" to="-102165688#1"/>
    <trip id="veh5" type="veh_passenger" depart="14.38" departLane="best" departSpeed="max" from="-28038008" to="-157984988#1"/>
    <trip id="veh6" type="veh_passenger" depart="17.26" departLane="best" from="102077272#1" to="-290304847"/>
    <trip id="veh7" type="veh_passenger" depart="20.13" departLane="best" departSpeed="max" from="-28038145#2" to="22650417#3"/>
    <trip id="veh8" type="veh_passenger" depart="23.01" departLane="best" from="570426101#1" to="-100132095#1"/>
    <trip id="veh12" type="veh_passenger" depart="34.51" departLane="best" departSpeed="max" from="-109868571#1" to="-174897333#0"/>
    <trip id="veh13" type="veh_passenger" depart="37.39" departLane="best" from="717380718#2" to="22674680#5.197"/>
    <trip id="veh15" type="veh_passenger" depart="43.14" departLane="best" from="174897333#5" to="966303574#0"/>
    <trip id="veh16" type="veh_passenger" depart="46.02" departLane="best" from="-99885096#9" to="-22492931#3"/>
    <trip id="veh17" type="veh_passenger" depart="48.89" departLane="best" from="620127938#5" to="-23748877#0"/>
    <trip id="veh18" type="veh_passenger" depart="51.77" departLane="best" from="717380723#5" to="22650414#0"/>
    <trip id="veh19" type="veh_passenger" depart="54.65" departLane="best" from="28027470#1" to="104493121#3"/>
    <trip id="veh20" type="veh_passenger" depart="57.52" departLane="best" from="-292643664#5" to="-83674622#0"/>
    <trip id="veh21" type="veh_passenger" depart="60.40" departLane="best" from="157984988#2" to="-717380720#1"/>
    <trip id="veh22" type="veh_passenger" depart="63.27" departLane="best" departSpeed="max" from="-923330517" to="-356789687"/>
    <trip id="veh23" type="veh_passenger" depart="66.15" departLane="best" departSpeed="max" from="-51167747" to="88439548#1"/>
    <trip id="veh24" type="veh_passenger" depart="69.03" departLane="best" from="24526883#1" to="228897343"/>
    <trip id="veh25" type="veh_passenger" depart="71.90" departLane="best" from="-28026990#5" to="28030460#3"/>
    <trip id="veh26" type="veh_passenger" depart="74.78" departLane="best" departSpeed="max" from="-28026985#1" to="-1002022809"/>
    <trip id="veh27" type="veh_passenger" depart="77.65" departLane="best" departSpeed="max" from="22568418" to="28021910#1"/>
    <trip id="veh28" type="veh_passenger" depart="80.53" departLane="best" from="689277289#1" to="391891766#6"/>
    <trip id="veh29" type="veh_passenger" depart="83.41" departLane="best" from="316442932" to="102173037#4"/>
    <trip id="veh30" type="veh_passenger" depart="86.28" departLane="best" from="83674640#3" to="-620127938#1"/>
    <trip id="veh31" type="veh_passenger" depart="89.16" departLane="best" from="-28037992#3" to="88439558#5"/>
    <trip id="veh32" type="veh_passenger" depart="92.03" departLane="best" from="-83674622#2" to="-83675530#1"/>
    <trip id="veh33" type="veh_passenger" depart="94.91" departLane="best" from="254360505#1" to="-102077270#2"/>
    <trip id="veh34" type="veh_passenger" depart="97.79" departLane="best" from="881567590#1" to="104493133"/>
    <trip id="veh35" type="veh_passenger" depart="100.66" departLane="best" from="22650417#2" to="83674640#1"/>
    <trip id="veh36" type="veh_passenger" depart="103.54" departLane="best" departSpeed="max" from="100965608#0" to="-44419254#4"/>
    <trip id="veh37" type="veh_passenger" depart="106.42" departLane="best" departSpeed="max" from="E8" to="157989171"/>
    <trip id="veh38" type="veh_passenger" depart="109.29" departLane="best" departSpeed="max" from="-109868570#0" to="-104493131#0"/>
    <trip id="veh39" type="veh_passenger" depart="112.17" departLane="best" from="51167746#0" to="102165313"/>
    <trip id="veh40" type="veh_passenger" depart="115.04" departLane="best" departSpeed="max" from="-104493120" to="100376010"/>
    <trip id="veh41" type="veh_passenger" depart="117.92" departLane="best" from="-E24" to="689277290#0"/>
    <trip id="veh42" type="veh_passenger" depart="120.80" departLane="best" from="-100132095#2" to="28027974#2"/>
    <trip id="veh43" type="veh_passenger" depart="123.67" departLane="best" from="-28021111#5.14" to="180170772"/>
    <trip id="veh44" type="veh_passenger" depart="126.55" departLane="best" from="51167746#1" to="23903302#3"/>
    <trip id="veh48" type="veh_passenger" depart="138.05" departLane="best" from="881567589" to="-717380720#4"/>
    <trip id="veh49" type="veh_passenger" depart="140.93" departLane="best" from="-717380719#4" to="23749417"/>
    <trip id="veh50" type="veh_passenger" depart="143.80" departLane="best" departSpeed="max" from="23748652#0" to="28021111#5"/>
    <trip id="veh51" type="veh_passenger" depart="146.68" departLane="best" departSpeed="max" from="44419254#0" to="180389210"/>
    <trip id="veh52" type="veh_passenger" depart="149.56" departLane="best" from="-44420691#0" to="174457572"/>
    <trip id="veh53" type="veh_passenger" depart="152.43" departLane="best" departSpeed="max" from="-100100940" to="-83701769"/>
    <trip id="veh55" type="veh_passenger" depart="158.18" departLane="best" from="83674640#0" to="591402342#0"/>
    <trip id="veh56" type="veh_passenger" depart="161.06" departLane="best" from="717380723#9" to="-105196530#0"/>
    <trip id="veh57" type="veh_passenger" depart="163.94" departLane="best" departSpeed="max" from="83674627" to="88439571"/>
    <trip id="veh58" type="veh_passenger" depart="166.81" departLane="best" departSpeed="max" from="-105467442" to="109868571#1"/>
    <trip id="veh59" type="veh_passenger" depart="169.69" departLane="best" departSpeed="max" from="-104493124" to="342586722#1"/>
    <trip id="veh60" type="veh_passenger" depart="172.56" departLane="best" from="44419390#0" to="-23748652#0"/>
    <trip id="veh61" type="veh_passenger" depart="175.44" departLane="best" from="-105196544#1" to="222910864#1"/>
    <trip id="veh62" type="veh_passenger" depart="178.32" departLane="best" from="51167745#4" to="717380721#0"/>
    <trip id="veh64" type="veh_passenger" depart="184.07" departLane="best" departSpeed="max" from="E8" to="24526908#2"/>
    <trip id="veh65" type="veh_passenger" depart="186.95" departLane="best" departSpeed="max" from="1033371820" to="159534243"/>
    <trip id="veh66" type="veh_passenger" depart="189.82" departLane="best" from="206157073#4" to="-44420537#0"/>
    <trip id="veh67" type="veh_passenger" depart="192.70" departLane="best" from="83675534#0" to="22650417#2"/>
    <trip id="veh68" type="veh_passenger" depart="195.57" departLane="best" from="-342586722#0" to="-44419470#6"/>
    <trip id="veh69" type="veh_passenger" depart="198.45" departLane="best" from="104493131#2" to="23749256#1"/>
    <trip id="veh70" type="veh_passenger" depart="201.33" departLane="best" from="316442932" to="83674647#2"/>
    <trip id="veh71" type="veh_passenger" depart="204.20" departLane="best" from="717380723#10" to="-109868571#0"/>
    <trip id="veh72" type="veh_passenger" depart="207.08" departLane="best" departSpeed="max" from="-371925364" to="28017786#0"/>
    <trip id="veh73" type="veh_passenger" depart="209.95" departLane="best" departSpeed="max" from="-28037996#0" to="-23748877#0"/>
    <trip id="veh74" type="veh_passenger" depart="212.83" departLane="best" from="-916754558#0" to="22650378#0"/>
    <trip id="veh75" type="veh_passenger" depart="215.71" departLane="best" departSpeed="max" from="105196553#0" to="44419760#6"/>
    <trip id="veh76" type="veh_passenger" depart="218.58" departLane="best" departSpeed="max" from="570426101#0" to="-28038144"/>
    <trip id="veh77" type="veh_passenger" depart="221.46" departLane="best" departSpeed="max" from="-120588586#5" to="1024920555#0"/>
    <trip id="veh78" type="veh_passenger" depart="224.33" departLane="best" from="102146447#3" to="104493157"/>
    <trip id="veh79" type="veh_passenger" depart="227.21" departLane="best" departSpeed="max" from="28038145#0" to="28020753#1"/>
    <trip id="veh80" type="veh_passenger" depart="230.09" departLane="best" from="E39" to="-174897333#1"/>
    <trip id="veh81" type="veh_passenger" depart="232.96" departLane="best" from="102067748#0" to="916754558#0"/>
    <trip id="veh82" type="veh_passenger" depart="235.84" departLane="best" from="717380723#5" to="-570426101#0"/>
    <trip id="veh83" type="veh_passenger" depart="238.71" departLane="best" from="28027469#0" to="104493119#6"/>
    <trip id="veh84" type="veh_passenger" depart="241.59" departLane="best" from="102145996#0" to="-717380720#2"/>
    <trip id="veh85" type="veh_passenger" depart="244.47" departLane="best" departSpeed="max" from="-44419782#1" to="83701760#3"/>
    <trip id="veh86" type="veh_passenger" depart="247.34" departLane="best" from="-103670697#4" to="689277290#0"/>
    <trip id="veh87" type="veh_passenger" depart="250.22" departLane="best" from="22468241" to="104493151#1"/>
    <trip id="veh88" type="veh_passenger" depart="253.10" departLane="best" departSpeed="max" from="E9" to="620120791"/>
    <trip id="veh89" type="veh_passenger" depart="255.97" departLane="best" from="E22" to="83701765#4"/>
    <trip id="veh91" type="veh_passenger" depart="261.72" departLane="best" from="1107701843#2" to="391891766#3"/>
    <trip id="veh92" type="veh_passenger" depart="264.60" departLane="best" departSpeed="max" from="100965608#0" to="105196544#0"/>
    <trip id="veh93" type="veh_passenger" depart="267.48" departLane="best" from="99939355#0" to="E22"/>
    <trip id="veh94" type="veh_passenger" depart="270.35" departLane="best" from="51167745#5" to="44419760#5"/>
    <trip id="veh95" type="veh_passenger" depart="273.23" departLane="best" from="104493131#5" to="-102165319"/>
    <trip id="veh96" type="veh_passenger" depart="276.10" departLane="best" from="-99885096#6" to="E36"/>
    <trip id="veh97" type="veh_passenger" depart="278.98" departLane="best" from="22492934#1" to="28027971"/>
    <trip id="veh98" type="veh_passenger" depart="281.86" departLane="best" from="28014492#1" to="83674642#1"/>
    <trip id="veh99" type="veh_passenger" depart="284.73" departLane="best" departSpeed="max" from="E2" to="22650414#1"/>
    <trip id="veh100" type="veh_passenger" depart="287.61" departLane="best" departSpeed="max" from="206157073#0" to="28038145#2"/>
    <trip id="veh101" type="veh_passenger" depart="290.48" departLane="best" departSpeed="max" from="-104493115#3" to="22650414#3"/>
    <trip id="veh102" type="veh_passenger" depart="293.36" departLane="best" from="136182032#1" to="620127951#0"/>
    <trip id="veh103" type="veh_passenger" depart="296.24" departLane="best" departSpeed="max" from="-28019453#0" to="916754558#1"/>
    <trip id="veh104" type="veh_passenger" depart="299.11" departLane="best" from="-105196544#1" to="-28037992#5"/>
    <trip id="veh105" type="veh_passenger" depart="301.99" departLane="best" from="22650446#0" to="28020969"/>
    <trip id="veh106" type="veh_passenger" depart="304.86" departLane="best" from="174897333#5" to="-228894135#1"/>
    <trip id="veh107" type="veh_passenger" depart="307.74" departLane="best" departSpeed="max" from="83674771" to="-561322876#0"/>
    <trip id="veh108" type="veh_passenger" depart="310.62" departLane="best" from="22650432" to="23748877#2"/>
    <trip id="veh109" type="veh_passenger" depart="313.49" departLane="best" from="-102145993#0" to="22650414#3"/>
    <trip id="veh110" type="veh_passenger" depart="316.37" departLane="best" from="164945645" to="881567591#0"/>
    <trip id="veh111" type="veh_passenger" depart="319.25" departLane="best" from="-391891766#1" to="-102077270#3"/>
    <trip id="veh112" type="veh_passenger" depart="322.12" departLane="best" from="28014492#1" to="-83674650"/>
    <trip id="veh113" type="veh_passenger" depart="325.00" departLane="best" from="-83674642#1" to="292643664#0"/>
    <trip id="veh114" type="veh_passenger" depart="327.87" departLane="best" departSpeed="max" from="-104493133" to="-391891766#2"/>
    <trip id="veh115" type="veh_passenger" depart="330.75" departLane="best" from="51167745#5" to="881567590#1"/>
    <trip id="veh116" type="veh_passenger" depart="333.63" departLane="best" from="-83674642#0" to="-717380723#5"/>
    <trip id="veh119" type="veh_passenger" depart="342.25" departLane="best" from="23748691#1" to="E25"/>
    <trip id="veh120" type="veh_passenger" depart="345.13" departLane="best" from="254360502#3" to="-1002022806#1"/>
    <trip id="veh121" type="veh_passenger" depart="348.01" departLane="best" departSpeed="max" from="620120792" to="-83674650"/>
    <trip id="veh122" type="veh_passenger" depart="350.88" departLane="best" departSpeed="max" from="27999818#0" to="88439558#1"/>
    <trip id="veh123" type="veh_passenger" depart="353.76" departLane="best" departSpeed="max" from="-228897343" to="-22492931#0"/>
    <trip id="veh124" type="veh_passenger" depart="356.63" departLane="best" departSpeed="max" from="-159534243" to="22492934#0"/>
    <trip id="veh125" type="veh_passenger" depart="359.51" departLane="best" from="-561322876#0" to="22674680#5.197"/>
    <trip id="veh126" type="veh_passenger" depart="362.39" departLane="best" from="-28037991#0" to="-316443377#0"/>
    <trip id="veh127" type="veh_passenger" depart="365.26" departLane="best" from="23903297#0" to="-620127935#0"/>
    <trip id="veh128" type="veh_passenger" depart="368.14" departLane="best" from="1107701847" to="83674647#2"/>
    <trip id="veh129" type="veh_passenger" depart="371.01" departLane="best" from="717380717#3" to="-172912073#0"/>
    <trip id="veh130" type="veh_passenger" depart="373.89" departLane="best" from="102146447#3" to="-717380719#4"/>
    <trip id="veh131" type="veh_passenger" depart="376.77" departLane="best" from="100101558#3" to="371925364"/>
    <trip id="veh132" type="veh_passenger" depart="379.64" departLane="best" departSpeed="max" from="241481352" to="620127931#0"/>
    <trip id="veh133" type="veh_passenger" depart="382.52" departLane="best" from="292643665#3" to="-22492931#2"/>
    <trip id="veh134" type="veh_passenger" depart="385.39" departLane="best" from="102165313" to="100376010"/>
    <trip id="veh135" type="veh_passenger" depart="388.27" departLane="best" from="-104493151#0" to="760744245"/>
    <trip id="veh136" type="veh_passenger" depart="391.15" departLane="best" from="44419254#3" to="206157097"/>
    <trip id="veh137" type="veh_passenger" depart="394.02" departLane="best" from="620127950#1" to="22650414#2.34"/>
    <trip id="veh138" type="veh_passenger" depart="396.90" departLane="best" departSpeed="max" from="-23965518" to="-23748652#0"/>
    <trip id="veh139" type="veh_passenger" depart="399.78" departLane="best" from="-807805157#0" to="-83674640#3"/>
    <trip id="veh140" type="veh_passenger" depart="402.65" departLane="best" from="83675533#1" to="-371925354"/>
    <trip id="veh141" type="veh_passenger" depart="405.53" departLane="best" departSpeed="max" from="-44419782#1" to="-174897333#6"/>
    <trip id="veh142" type="veh_passenger" depart="408.40" departLane="best" from="44420707#0" to="807804127"/>
    <trip id="veh143" type="veh_passenger" depart="411.28" departLane="best" departSpeed="max" from="102077270#0" to="-23748877#4"/>
    <trip id="veh144" type="veh_passenger" depart="414.16" departLane="best" from="28014492#0" to="881567588"/>
    <trip id="veh145" type="veh_passenger" depart="417.03" departLane="best" departSpeed="max" from="760744243" to="-99751844#1"/>
    <trip id="veh146" type="veh_passenger" depart="419.91" departLane="best" from="570426101#2" to="760744245"/>
    <trip id="veh147" type="veh_passenger" depart="422.78" departLane="best" from="102077270#5" to="28037992#2"/>
    <trip id="veh148" type="veh_passenger" depart="425.66" departLane="best" from="-83675520#1" to="881567589"/>
    <trip id="veh149" type="veh_passenger" depart="428.54" departLane="best" from="561322877#2" to="717380718#0"/>
    <trip id="veh150" type="veh_passenger" depart="431.41" departLane="best" from="570426101#2" to="-620127937"/>
    <trip id="veh151" type="veh_passenger" depart="434.29" departLane="best" departSpeed="max" from="51167745#0" to="-206157073#0"/>
    <trip id="veh152" type="veh_passenger" depart="437.16" departLane="best" departSpeed="max" from="814259719" to="689277287#1"/>
    <trip id="veh153" type="veh_passenger" depart="440.04" departLane="best" departSpeed="max" from="-28038145#2" to="546662925#1"/>
    <trip id="veh154" type="veh_passenger" depart="442.92" departLane="best" departSpeed="max" from="104493152#0" to="-83674767#1"/>
    <trip id="veh155" type="veh_passenger" depart="445.79" departLane="best" from="542209565" to="44420660#0"/>
    <trip id="veh156" type="veh_passenger" depart="448.67" departLane="best" from="102077270#2" to="-28038145#0"/>
    <trip id="veh157" type="veh_passenger" depart="451.54" departLane="best" from="83674767#1" to="717380718#0"/>
    <trip id="veh158" type="veh_passenger" depart="454.42" departLane="best" departSpeed="max" from="E2" to="-717380720#3"/>
    <trip id="veh159" type="veh_passenger" depart="457.30" departLane="best" departSpeed="max" from="241481353" to="102081695#1"/>
    <trip id="veh162" type="veh_passenger" depart="465.93" departLane="best" departSpeed="max" from="E11" to="-620127935#0"/>
    <trip id="veh163" type="veh_passenger" depart="468.80" departLane="best" departSpeed="max" from="-159663520#1" to="-103670697#0"/>
    <trip id="veh164" type="veh_passenger" depart="471.68" departLane="best" departSpeed="max" from="23031245" to="157989173#2"/>
    <trip id="veh165" type="veh_passenger" depart="474.55" departLane="best" from="100101558#0" to="22650414#0"/>
    <trip id="veh167" type="veh_passenger" depart="480.31" departLane="best" departSpeed="max" from="-100100940" to="83701765#4"/>
    <trip id="veh168" type="veh_passenger" depart="483.18" departLane="best" from="174897340" to="28027974#2"/>
    <trip id="veh169" type="veh_passenger" depart="486.06" departLane="best" from="292643665#4" to="28019453#0"/>
    <trip id="veh170" type="veh_passenger" depart="488.93" departLane="best" departSpeed="max" from="-916754558#1" to="-109868571#0"/>
    <trip id="veh171" type="veh_passenger" depart="491.81" departLane="best" departSpeed="max" from="27999818#0" to="88439558#1"/>
    <trip id="veh172" type="veh_passenger" depart="494.69" departLane="best" from="-83674640#0" to="620127940#1"/>
    <trip id="veh173" type="veh_passenger" depart="497.56" departLane="best" from="28037991#7" to="-83674650"/>
    <trip id="veh174" type="veh_passenger" depart="500.44" departLane="best" from="-807805157#1" to="102145981#0"/>
    <trip id="veh175" type="veh_passenger" depart="503.31" departLane="best" from="100965608#1" to="-83674640#2"/>
    <trip id="veh176" type="veh_passenger" depart="506.19" departLane="best" from="221257123#6" to="-102164657"/>
    <trip id="veh178" type="veh_passenger" depart="511.94" departLane="best" departSpeed="max" from="83675541" to="23748691#0"/>
    <trip id="veh179" type="veh_passenger" depart="514.82" departLane="best" from="717380720#4" to="207070219"/>
    <trip id="veh180" type="veh_passenger" depart="517.69" departLane="best" departSpeed="max" from="-100100940" to="807805157#0"/>
    <trip id="veh181" type="veh_passenger" depart="520.57" departLane="best" from="102165688#0" to="22650414#1"/>
    <trip id="veh182" type="veh_passenger" depart="523.45" departLane="best" from="254360502#3" to="104493151#3"/>
    <trip id="veh183" type="veh_passenger" depart="526.32" departLane="best" departSpeed="max" from="105196553#0" to="83674642#2"/>
    <trip id="veh185" type="veh_passenger" depart="532.08" departLane="best" from="23749390" to="886211692"/>
    <trip id="veh186" type="veh_passenger" depart="534.95" departLane="best" from="620120795#1" to="28866079#0"/>
    <trip id="veh187" type="veh_passenger" depart="537.83" departLane="best" from="28020753#1" to="44420537#0"/>
    <trip id="veh188" type="veh_passenger" depart="540.70" departLane="best" departSpeed="max" from="-28027978#2" to="-102145981#4"/>
    <trip id="veh189" type="veh_passenger" depart="543.58" departLane="best" from="-44419760#0" to="105467429#2"/>
    <trip id="veh190" type="veh_passenger" depart="546.46" departLane="best" from="717380719#3" to="-120588585#0"/>
    <trip id="veh191" type="veh_passenger" depart="549.33" departLane="best" from="-102081702#1" to="23749256#0"/>
    <trip id="veh193" type="veh_passenger" depart="555.08" departLane="best" from="1107701849" to="-559475282#0"/>
    <trip id="veh194" type="veh_passenger" depart="557.96" departLane="best" from="254360505#2" to="-100132095#0"/>
    <trip id="veh195" type="veh_passenger" depart="560.84" departLane="best" from="356789687" to="356792299#1.147"/>
    <trip id="veh196" type="veh_passenger" depart="563.71" departLane="best" departSpeed="max" from="-159534243" to="102173037#1"/>
    <trip id="veh197" type="veh_passenger" depart="566.59" departLane="best" departSpeed="max" from="-28027021#0" to="907839368#2"/>
    <trip id="veh198" type="veh_passenger" depart="569.46" departLane="best" departSpeed="max" from="-44419782#1" to="-620127938#0"/>
    <trip id="veh199" type="veh_passenger" depart="572.34" departLane="best" from="104493139#0" to="44420707#1"/>
    <trip id="veh201" type="veh_passenger" depart="578.09" departLane="best" from="22650446#0" to="88439575#0"/>
    <trip id="veh202" type="veh_passenger" depart="580.97" departLane="best" departSpeed="max" from="83674771" to="-228995664"/>
    <trip id="veh203" type="veh_passenger" depart="583.84" departLane="best" from="28037991#5" to="154859701"/>
    <trip id="veh204" type="veh_passenger" depart="586.72" departLane="best" from="620127940#1" to="207070219"/>
    <trip id="veh205" type="veh_passenger" depart="589.60" departLane="best" from="105321647#0" to="-620120791"/>
    <trip id="veh206" type="veh_passenger" depart="592.47" departLane="best" departSpeed="max" from="-44419760#6" to="23749390"/>
    <trip id="veh207" type="veh_passenger" depart="595.35" departLane="best" from="44419390#0" to="159663520#1"/>
    <trip id="veh208" type="veh_passenger" depart="598.22" departLane="best" from="-104493152#1" to="-717380723#9"/>
    <trip id="veh209" type="veh_passenger" depart="601.10" departLane="best" from="-559475282#4" to="-83675541"/>
    <trip id="veh210" type="veh_passenger" depart="603.98" departLane="best" departSpeed="max" from="179169979" to="-241481352"/>
    <trip id="veh212" type="veh_passenger" depart="609.73" departLane="best" from="28027589#1" to="-105196553#0"/>
    <trip id="veh213" type="veh_passenger" depart="612.61" departLane="best" departSpeed="max" from="102077270#0" to="-206157073#1"/>
    <trip id="veh214" type="veh_passenger" depart="615.48" departLane="best" from="102145963" to="342586722#1"/>
    <trip id="veh215" type="veh_passenger" depart="618.36" departLane="best" from="102145994#1" to="83674647#2"/>
    <trip id="veh217" type="veh_passenger" depart="624.11" departLane="best" from="717380722#1" to="34779710#0"/>
    <trip id="veh218" type="veh_passenger" depart="626.99" departLane="best" from="-99939360#2" to="-100132095#0"/>
    <trip id="veh219" type="veh_passenger" depart="629.86" departLane="best" from="-88439563#1" to="292643664#4"/>
    <trip id="veh221" type="veh_passenger" depart="635.61" departLane="best" from="-102145993#0" to="28038145#2"/>
    <trip id="veh222" type="veh_passenger" depart="638.49" departLane="best" departSpeed="max" from="221257123#4" to="22674680#5.197"/>
    <trip id="veh223" type="veh_passenger" depart="641.37" departLane="best" departSpeed="max" from="-28038145#2" to="-44419254#4"/>
    <trip id="veh224" type="veh_passenger" depart="644.24" departLane="best" from="1024920555#1" to="-102165319"/>
    <trip id="veh225" type="veh_passenger" depart="647.12" departLane="best" departSpeed="max" from="-83675532" to="-28021111#1"/>
    <trip id="veh227" type="veh_passenger" depart="652.87" departLane="best" from="105196530#1" to="-23748652#0"/>
    <trip id="veh228" type="veh_passenger" depart="655.75" departLane="best" from="23749115#1" to="-102146448#1"/>
    <trip id="veh229" type="veh_passenger" depart="658.62" departLane="best" from="-1002022808#1" to="22650367#1"/>
    <trip id="veh230" type="veh_passenger" depart="661.50" departLane="best" departSpeed="max" from="-102081695#1" to="23965518"/>
    <trip id="veh231" type="veh_passenger" depart="664.37" departLane="best" from="-228994136#0" to="104493139#0"/>
    <trip id="veh232" type="veh_passenger" depart="667.25" departLane="best" from="-103670697#1" to="1002022808#0"/>
    <trip id="veh233" type="veh_passenger" depart="670.13" departLane="best" from="-28037992#5" to="-88439548#0"/>
    <trip id="veh235" type="veh_passenger" depart="675.88" departLane="best" from="356792299#0" to="-591402342#0"/>
    <trip id="veh236" type="veh_passenger" depart="678.76" departLane="best" from="44419843#1" to="-157986565#2"/>
    <trip id="veh237" type="veh_passenger" depart="681.63" departLane="best" from="-100380482#0" to="180389210"/>
    <trip id="veh238" type="veh_passenger" depart="684.51" departLane="best" departSpeed="max" from="E9" to="-99885096#9"/>
    <trip id="veh239" type="veh_passenger" depart="687.38" departLane="best" from="254360502#1" to="292643664#7"/>
    <trip id="veh241" type="veh_passenger" depart="693.14" departLane="best" departSpeed="max" from="-100380482#1.150" to="-28021111#5"/>
    <trip id="veh242" type="veh_passenger" depart="696.01" departLane="best" from="-220022429#0" to="28017786#0"/>
    <trip id="veh243" type="veh_passenger" depart="698.89" departLane="best" from="22650367#5" to="-44419254#0"/>
    <trip id="veh244" type="veh_passenger" depart="701.76" departLane="best" departSpeed="max" from="28027284#0" to="-356789687"/>
    <trip id="veh245" type="veh_passenger" depart="704.64" departLane="best" departSpeed="max" from="-28026990#10" to="-105467444#0"/>
    <trip id="veh246" type="veh_passenger" depart="707.52" departLane="best" from="-342586722#3" to="-22492931#0"/>
    <trip id="veh247" type="veh_passenger" depart="710.39" departLane="best" departSpeed="max" from="-159663520#1" to="102145987"/>
    <trip id="veh248" type="veh_passenger" depart="713.27" departLane="best" departSpeed="max" from="-83674635" to="28021059#1"/>
    <trip id="veh249" type="veh_passenger" depart="716.14" departLane="best" from="-99885096#8" to="-102077270#5"/>
    <trip id="veh250" type="veh_passenger" depart="719.02" departLane="best" departSpeed="max" from="28030459#0" to="-120789326#1"/>
    <trip id="veh251" type="veh_passenger" depart="721.90" departLane="best" from="28026990#5" to="23749115#1"/>
    <trip id="veh252" type="veh_passenger" depart="724.77" departLane="best" from="-157986560#1" to="371925364"/>
    <trip id="veh253" type="veh_passenger" depart="727.65" departLane="best" from="717380719#5" to="22674680#0"/>
    <trip id="veh254" type="veh_passenger" depart="730.52" departLane="best" from="206157073#4" to="99939360#2"/>
    <trip id="veh255" type="veh_passenger" depart="733.40" departLane="best" from="447053041#4" to="99885096#2"/>
    <trip id="veh256" type="veh_passenger" depart="736.28" departLane="best" from="102165315" to="100101559"/>
    <trip id="veh257" type="veh_passenger" depart="739.15" departLane="best" from="-157986560#1" to="916760971#3"/>
    <trip id="veh258" type="veh_passenger" depart="742.03" departLane="best" from="717380719#3" to="-559475282#2"/>
    <trip id="veh259" type="veh_passenger" depart="744.91" departLane="best" departSpeed="max" from="-159534243" to="916754558#1"/>
    <trip id="veh260" type="veh_passenger" depart="747.78" departLane="best" from="-23903302#1" to="-570426101#2"/>
    <trip id="veh261" type="veh_passenger" depart="750.66" departLane="best" from="28027589#3" to="103670697#1.11"/>
    <trip id="veh262" type="veh_passenger" depart="753.53" departLane="best" departSpeed="max" from="290304847" to="918645546"/>
    <trip id="veh263" type="veh_passenger" depart="756.41" departLane="best" from="-559475282#0" to="-51167745#4"/>
    <trip id="veh264" type="veh_passenger" depart="759.29" departLane="best" from="174897340" to="109868570#0"/>
    <trip id="veh266" type="veh_passenger" depart="765.04" departLane="best" departSpeed="max" from="-51167747" to="620127950#0"/>
    <trip id="veh267" type="veh_passenger" depart="767.91" departLane="best" from="-620127942" to="-160615651#0"/>
    <trip id="veh268" type="veh_passenger" depart="770.79" departLane="best" from="-83674647#0" to="559475282#0"/>
    <trip id="veh269" type="veh_passenger" depart="773.67" departLane="best" from="44420541" to="228897343"/>
    <trip id="veh270" type="veh_passenger" depart="776.54" departLane="best" from="99939355#0" to="102164657"/>