<routes xmlns:xsi="http://www.w3.org/2001/XMLSchema-instance" xsi:noNamespaceSchemaLocation="http://sumo.dlr.de/xsd/routes_file.xsd">

  <vTypeDistribution id="out_t_pg_cfm_k_jm_m_lcm_e_kr"
                     vTypes="t_pg t_cfm_k t_jm_m t_lcm_e_kr"/>
  <vTypeDistribution id="out_t_pg_cfm_k_jm_m_lcm_e_m"
                     vTypes="t_pg t_cfm_k t_jm_m t_lcm_e_m"/>
  <vTypeDistribution id="out_t_pg_cfm_k_jm_a_lcm_e_kr"
                     vTypes="t_pg t_cfm_k t_jm_a t_lcm_e_kr"/>
  <vTypeDistribution id="out_t_pg_cfm_k_jm_a_lcm_e_a"
                     vTypes="t_pg t_cfm_k t_jm_a t_lcm_e_a"/>


  <flow begin="0.00" color="white" departLane="random" departSpeed="avg" end="3600.00" id="f_ach1_to_r2ps" period="exp(0.028)" type="out_t_pg_cfm_k_jm_a_lcm_e_a"> 
    <route edges="760744243 542209564#1 1024920554 689277287#1 1024920555#0 1024920555#1 689277281#9 689277281#10 689277281#1 689277281#2 689277281#3 689277281#4 689277281#5 966303574#0 966303574#1 966303575 1024948819 689277283 918645546 918645545 814259721" /> 
  </flow>
  
  <flow begin="0.00" color="white" departLane="random" departSpeed="avg" end="3600.00" id="f_mgp_to_r2ps" period="exp(0.028)" type="out_t_pg_cfm_k_jm_a_lcm_e_a"> 
    <route edges="221257123#4 221257123#6 542209564#5 542209564#6 542209564#7 542209564#8 542209564#1 1024920554 689277287#1 1024920555#0 1024920555#1 689277281#9 689277281#10 689277281#1 689277281#2 689277281#3 689277281#4 689277281#5 966303574#0 966303574#1 966303575 1024948819 689277283 918645546 918645545 814259721" /> 
  </flow>

  <flow begin="0.00" color="white" departLane="random" departSpeed="avg" end="3600.00" id="f_ikia_to_r2ps" period="exp(0.028)" type="out_t_pg_cfm_k_jm_a_lcm_e_a"> 
    <route edges="-E36 28014492#0 28014492#1 28014492#2 170556796#3 170556796#4 26104213#0 -23903302#3 -23903302#1 -23903302#0 23749390 23749315#8 23749315#9.15 164945645 -28021111#5 -28021111#5.14 -28021111#3.20 -28021111#2 -28021111#1 24526883#0 24526883#1 174897325#0 174897325#2 254362790#0 E39 1107701854#2 28020970#1 1107701847 1107701847.173 881567590#0 881567590#1 689277281#1 689277281#2 689277281#3 689277281#4 689277281#5 966303574#0 966303574#1 966303575 1024948819 689277283 918645546 918645545 814259721" /> 
  </flow>

  <flow begin="0.00" color="white" departLane="random" departSpeed="avg" end="3600.00" id="f_alpha_to_r2ps" period="exp(0.027)" type="out_t_pg_cfm_k_jm_a_lcm_e_a"> 
    <route edges="27999818#0 27999818#1 23749113#3 23749115#0 23749115#1 23749115#2 22650412#7 22650412#0 22650412#1 22650422#0 22650422#1 22650422#2 22650422#3 22650422#4 22650420#7 22650420#8 22650420#1 22650446#0 22650446#1 542209564#7 542209564#8 542209564#1 1024920554 689277287#1 1024920555#0 1024920555#1 689277281#9 689277281#10 689277281#1 689277281#2 689277281#3 689277281#4 689277281#5 966303574#0 966303574#1 966303575 1024948819 689277283 918645546 918645545 814259721" /> 
  </flow>

  <flow begin="0.00" color="white" departLane="random" departSpeed="avg" end="3600.00" id="f_onation_to_r2ps" period="exp(0.024)" type="out_t_pg_cfm_k_jm_a_lcm_e_a"> 
    <route edges="-620127931#1 -620127931#0 -100376010 -510762961 356792291#5 22650367#0 22650367#1 22650367#2 22650367#4 22650367#5 22650367#6 22650375#6 22650375#7 22650375#1 22650414#0 22650414#0.19 22650414#1 22650414#2 22650414#2.34 22650414#3 23749113#1 23749113#2 23749113#3 23749115#0 23749115#1 23749115#2 22650412#7 22650412#0 22650412#1 22650422#0 22650422#1 22650422#2 22650422#3 22650422#4 22650420#7 22650420#8 22650420#1 22650446#0 22650446#1 542209564#7 542209564#8 542209564#1 1024920554 689277287#1 1024920555#0 1024920555#1 689277281#9 689277281#10 689277281#1 689277281#2 689277281#3 689277281#4 689277281#5 966303574#0 966303574#1 966303575 1024948819 689277283 918645546 918645545 814259721" /> 
  </flow>

  <flow begin="0.00" color="blue" departLane="random" departSpeed="avg" end="3600.00" id="f_ach1_to_r2pn" period="exp(0.028)" type="out_t_pg_cfm_k_jm_a_lcm_e_a"> 
    <route edges="760744243 542209564#1 1024920554 689277287#1 1024920555#0 1024920555#1 689277281#9 689277285#0 689277285#1 689277285#2 1024920556 881567589 666132796 22468300#6 22468300#7 22468300#8 22468300#9 22568417" /> 
  </flow>
  
  <flow begin="0.00" color="blue" departLane="random" departSpeed="avg" end="3600.00" id="f_mgp_to_r2pn" period="exp(0.028)" type="out_t_pg_cfm_k_jm_a_lcm_e_a"> 
    <route edges="221257123#4 221257123#6 542209564#5 542209564#6 542209564#7 542209564#8 542209564#1 1024920554 689277287#1 1024920555#0 1024920555#1 689277281#9 689277285#0 689277285#1 689277285#2 1024920556 881567589 666132796 22468300#6 22468300#7 22468300#8 22468300#9 22568417" /> 
  </flow>

  <flow begin="0.00" color="blue" departLane="random" departSpeed="avg" end="3600.00" id="f_ikia_to_r2pn" period="exp(0.028)" type="out_t_pg_cfm_k_jm_a_lcm_e_a"> 
    <route edges="-E36 28014492#0 28014492#1 28014492#2 170556796#3 170556796#4 26104213#0 -23903302#3 -23903302#1 -23903302#0 23749390 23749315#8 23749315#9.15 164945645 -28021111#5 -28021111#5.14 -28021111#3.20 -28021111#2 -28021111#1 24526883#0 24526883#1 174897325#0 174897325#2 254362790#0 1107701852 247765090 1024951107 1024951108 666132796 22468300#6 22468300#7 22468300#8 22468300#9 22568417" /> 
  </flow>

  <flow begin="0.00" color="blue" departLane="random" departSpeed="avg" end="3600.00" id="f_alpha_to_r2pn" period="exp(0.028)" type="out_t_pg_cfm_k_jm_a_lcm_e_a"> 
    <route edges="27999818#0 27999818#1 23749113#3 23749115#0 23749115#1 23749115#2 22650412#7 28000506#0 -190876198 -1136268465 -102165688#1 -102165688#0 -619881884 -102164657 E12 102165317#5 102165317#6 102165317#0 102164659 102164655 102165318 22468300#9 22568417" /> 
  </flow>
   
  
  <flow begin="0.00" color="blue" departLane="random" departSpeed="avg" end="3600.00" id="f_onation_to_r2pn" period="exp(0.024)" type="out_t_pg_cfm_k_jm_a_lcm_e_a"> 
    <route edges="-620127931#1 -620127931#0 -100376010 -510762961 356792291#5 22650367#0 22650367#1 22650367#2 22650367#4 22650367#5 22650367#6 22650375#6 22650375#7 22650375#1 22650414#0 22650414#0.19 22650414#1 22650414#2 22650414#2.34 22650414#3 23749113#1 23749113#2 23749113#3 23749115#0 23749115#1 23749115#2 22650412#7 28000506#0 -190876198 -1136268465 -102165688#1 -102165688#0 -619881884 -102164657 E12 102165317#5 102165317#6 102165317#0 102164659 102164655 102165318 22468300#9 22568417" /> 
  </flow>
  

  <flow begin="0.00" color="orange" departLane="random" departSpeed="avg" end="3600.00" id="f_ach1_to_plsr" period="exp(0.025)" type="out_t_pg_cfm_k_jm_a_lcm_e_a">
    <route edges="760744243 542209564#1 1024920554 689277287#1 1024920555#0 1024920555#1 689277281#9 689277281#10 689277281#1 689277281#2 689277281#3 689277289#0 689277289#1 -591402342#1 -591402342#0 -22674672 22674680#0 22674680#5 22674680#5.197" /> 
  </flow>

  <flow begin="0.00" color="orange" departLane="random" departSpeed="avg" end="3600.00" id="f_mgp_to_plsr" period="exp(0.025)" type="out_t_pg_cfm_k_jm_a_lcm_e_a">
    <route edges="221257123#4 221257123#6 542209564#5 542209564#6 542209564#7 542209564#8 542209564#1 1024920554 689277287#1 1024920555#0 1024920555#1 689277281#9 689277281#10 689277281#1 689277281#2 689277281#3 689277289#0 689277289#1 -591402342#1 -591402342#0 -22674672 22674680#0 22674680#5 22674680#5.197" /> 
  </flow>

  
  <flow begin="0.00" color="orange" departLane="random" departSpeed="avg" end="3600.00" id="f_ikia_to_plsr" period="exp(0.025)" type="out_t_pg_cfm_k_jm_a_lcm_e_a">
    <route edges="E9 170556796#3 170556796#4 26104213#0 -23903302#3 -23903302#1 -23903302#0 23749390 23749315#8 23749315#9.15 164945645 -28021111#5 -28021111#5.14 -28021111#3.20 -28021111#2 -28021111#1 24526883#0 24526883#1 174897325#0 174897325#2 254362790#0 E39 1107701854#2 1107701854#4 -174897333#6 -174897333#5 -174897333#4 -174897333#3 -174897333#2 -174897333#1 -174897333#0" /> 
  </flow>

  <flow begin="0.00" color="orange" departLane="random" departSpeed="avg" end="3600.00" id="f_alpha_to_plsr" period="exp(0.025)" type="out_t_pg_cfm_k_jm_a_lcm_e_a">
    <route edges="27999818#0 27999818#1 23749113#3 23749115#0 23749115#1 23749115#2 22650412#7 22650412#0 22650412#1 22650422#0 22650422#1 22650422#2 22650422#3 22650422#4 22650420#7 22650420#8 22650420#1 22650446#0 22650446#1 542209564#7 542209564#8 542209564#1 1024920554 689277287#1 1024920555#0 1024920555#1 689277281#9 689277281#10 689277281#1 689277281#2 689277281#3 689277289#0 689277289#1 -591402342#1 -591402342#0 -22674672 22674680#0 22674680#5 22674680#5.197" /> 
  </flow>

  <flow begin="0.00" color="orange" departLane="random" departSpeed="avg" end="3600.00" id="f_onation_to_plsr" period="exp(0.017)" type="out_t_pg_cfm_k_jm_a_lcm_e_a">
    <route edges="-620127931#1 -620127931#0 -100376010 -510762961 356792291#5 22650367#0 22650367#1 22650367#2 22650367#4 22650367#5 22650367#6 22650375#6 22650375#7 22650375#1 22650414#0 22650414#0.19 22650414#1 22650414#2 22650414#2.34 22650414#3 23749113#1 23749113#2 23749113#3 23749115#0 23749115#1 23749115#2 22650412#7 22650412#0 22650412#1 22650422#0 22650422#1 22650422#2 22650422#3 22650422#4 22650420#7 22650420#8 22650420#1 22650446#0 22650446#1 542209564#7 542209564#8 542209564#1 1024920554 689277287#1 1024920555#0 1024920555#1 689277281#9 689277281#10 689277281#1 689277281#2 689277281#3 689277289#0 689277289#1 -591402342#1 -591402342#0 -22674672 22674680#0 22674680#5 22674680#5.197" /> 
  </flow>


  <flow begin="0.00" color="cyan" departLane="random" departSpeed="avg" end="3600.00" id="f_ach1_to_grgn" period="exp(0.025)" type="out_t_pg_cfm_k_jm_a_lcm_e_a">
    <route edges="760744243 542209564#1 1024920554 689277287#1 1024920555#0 1024920555#1 689277281#9 689277281#10 689277281#1 23748691#0 23748691#1 -23748652#1 -23748652#0" />
  </flow>


  <flow begin="0.00" color="cyan" departLane="random" departSpeed="avg" end="3600.00" id="f_mgp_to_grgn" period="exp(0.025)" type="out_t_pg_cfm_k_jm_a_lcm_e_a">
    <route edges="221257123#4 221257123#6 542209564#5 542209564#6 542209564#7 542209564#8 542209564#1 1024920554 689277287#1 1024920555#0 1024920555#1 689277281#9 689277281#10 689277281#1 23748691#0 23748691#1 -23748652#1 -23748652#0" />
  </flow>

  <flow begin="0.00" color="cyan" departLane="random" departSpeed="avg" end="3600.00" id="f_ikia_to_grgn" period="exp(0.025)" type="out_t_pg_cfm_k_jm_a_lcm_e_a">
    <route edges="E9 170556796#3 170556796#4 26104213#0 -23903302#3 -23903302#1 -23903302#0 23749390 23749315#8 23749315#9.15 164945645 -28021111#5 -28021111#5.14 -28021111#3.20 -28021111#2 -28021111#1 24526883#0 24526883#1 174897325#0 174897325#2 254362790#0 E39 1107701854#2 28020970#1 1107701847 1107701847.173 881567590#0 881567590#1 689277281#1 23748691#0 23748691#1 -23748652#1 -23748652#0" />
  </flow>
  
  <flow begin="0.00" color="cyan" departLane="random" departSpeed="avg" end="3600.00" id="f_alpha_to_grgn" period="exp(0.025)" type="out_t_pg_cfm_k_jm_a_lcm_e_a">
    <route edges="27999818#0 27999818#1 23749113#3 23749115#0 23749115#1 23749115#2 22650412#7 22650412#0 22650412#1 22650422#0 22650422#1 22650422#2 22650422#3 22650422#4 22650420#7 22650420#8 22650420#1 22650446#0 22650446#1 542209564#7 542209564#8 542209564#1 1024920554 689277287#1 1024920555#0 1024920555#1 689277281#9 689277281#10 689277281#1 23748691#0 23748691#1 -23748652#1 -23748652#0" />
  </flow>

  <flow begin="0.00" color="cyan" departLane="random" departSpeed="avg" end="3600.00" id="f_onation_to_grgn" period="exp(0.017)" type="out_t_pg_cfm_k_jm_a_lcm_e_a">
    <route edges="-620127931#1 -620127931#0 -100376010 -510762961 356792291#5 22650367#0 22650367#1 22650367#2 22650367#4 22650367#5 22650367#6 22650375#6 22650375#7 22650375#1 22650414#0 22650414#0.19 22650414#1 22650414#2 22650414#2.34 22650414#3 23749113#1 23749113#2 23749113#3 23749115#0 23749115#1 23749115#2 22650412#7 22650412#0 22650412#1 22650422#0 22650422#1 22650422#2 22650422#3 22650422#4 22650420#7 22650420#8 22650420#1 22650446#0 22650446#1 542209564#7 542209564#8 542209564#1 1024920554 689277287#1 1024920555#0 1024920555#1 689277281#9 689277281#10 689277281#1 23748691#0 23748691#1 -23748652#1 -23748652#0" />
  </flow>
  
  <flow begin="0.00" color="green" departLane="random" departSpeed="avg" end="3600.00" id="f_ach1_to_vlpr" period="exp(0.025)" type="out_t_pg_cfm_k_jm_a_lcm_e_a">
    <route edges="760744243 542209564#1 542209564#2 542209564#3 542209564#4 542209564#5 542209565 136182032#1 22650420#3 22650420#4 22650420#5 22650432 254360502#1 254360502#2 254360502#3 22650412#3 22650412#4 22650412#5 22650412#6 22650412#7 28000506#0 -190876198 -1136268465 -102165688#1 -102165688#0 -619881884 -102164657 E12 102165317#5 102164664 -102165319 -356789687" /> 
  </flow>
  
  <flow begin="0.00" color="green" departLane="random" departSpeed="avg" end="3600.00" id="f_mgp_to_vlpr" period="exp(0.025)" type="out_t_pg_cfm_k_jm_a_lcm_e_a">
    <route edges="221257123#4 221257123#6 542209564#5 542209565 136182032#1 22650420#3 22650420#4 22650420#5 22650432 254360502#1 254360502#2 254360502#3 22650412#3 22650412#4 22650412#5 22650412#6 22650412#7 28000506#0 -190876198 -1136268465 -102165688#1 -102165688#0 -619881884 -102164657 E12 102165317#5 102164664 -102165319 -356789687" /> 
  </flow>
  
  <flow begin="0.00" color="green" departLane="random" departSpeed="avg" end="3600.00" id="f_ikia_to_vlpr" period="exp(0.025)" type="out_t_pg_cfm_k_jm_a_lcm_e_a">
    <route edges="-28002710 524387945 1136268465 190876198 28000507#1 22650412#1 22650412#2 22650412#3 22650412#4 22650412#5 22650412#6 22650412#7 28000506#0 -190876198 -1136268465 -102165688#1 -102165688#0 -619881884 -102164657 E12 102165317#5 102164664 -102165319 -356789687" /> 
  </flow>
  
  <flow begin="0.00" color="green" departLane="random" departSpeed="avg" end="3600.00" id="f_alpha_to_vlpr" period="exp(0.025)" type="out_t_pg_cfm_k_jm_a_lcm_e_a">
    <route edges="27999818#0 27999818#1 23749113#3 23749115#0 23749115#1 23749115#2 22650412#7 28000506#0 -190876198 -1136268465 -102165688#1 -102165688#0 -619881884 -102164657 E12 102165317#5 102164664 -102165319 -356789687" /> 
  </flow>
  
  <flow begin="0.00" color="green" departLane="random" departSpeed="avg" end="3600.00" id="f_onation_to_vlpr" period="exp(0.017)" type="out_t_pg_cfm_k_jm_m_lcm_e_m">
    <route edges="-620127931#1 -620127931#0 -100376010 -510762961 356792291#5 356792291#6 356792291#1 356792291#2 356792299#0 356792299#1 356792299#1.147 22650364#1 22650364#2 22650364#3 22650365" /> 
  </flow>

  <flow begin="0.00" color="magenta" departLane="random" departSpeed="avg" end="3600.00" id="f_mgp_to_lcsb" period="exp(0.025)" type="out_t_pg_cfm_k_jm_a_lcm_e_a">
    <route edges="221257123#4 221257123#6 542209564#5 542209565 136182032#1 22650420#3 22650420#4 22650420#5 22650432 254360502#1 254360502#2 254360502#3 22650412#3 22650412#4 22650412#5 22650417#0 22650417#1 22650417#2 22650417#3 22650417#4 23749113#5 23749079#0 23749079#1 23749079#1.237 22650375#3 22650375#4 22650378#0 22650378#1 22650378#2 22650378#3 356792291#1 356792291#2 356792299#0 356792299#1 356792299#1.147 22650364#1 22650364#2 22650364#3 22650365" /> 
  </flow>

  <flow begin="0.00" color="magenta" departLane="random" departSpeed="avg" end="3600.00" id="f_ach1_to_lcsb" period="exp(0.025)" type="out_t_pg_cfm_k_jm_a_lcm_e_a">
    <route edges="760744243 542209564#1 542209564#2 542209564#3 542209564#4 542209564#5 542209565 136182032#1 22650420#3 22650420#4 22650420#5 22650432 254360502#1 254360502#2 254360502#3 22650412#3 22650412#4 22650412#5 22650417#0 22650417#1 22650417#2 22650417#3 22650417#4 23749113#5 23749079#0 23749079#1 23749079#1.237 22650375#3 22650375#4 22650378#0 22650378#1 22650378#2 22650378#3 356792291#1 356792291#2 356792299#0 356792299#1 356792299#1.147 22650364#1 22650364#2 22650364#3 22650365" /> 
  </flow>

  <flow begin="0.00" color="magenta" departLane="random" departSpeed="avg" end="3600.00" id="f_ikia_to_lcsb" period="exp(0.025)" type="out_t_pg_cfm_k_jm_a_lcm_e_a">
    <route edges="-28002710 524387945 1136268465 190876198 28000507#1 22650412#1 22650412#2 22650412#3 22650412#4 22650412#5 22650417#0 22650417#1 22650417#2 22650417#3 22650417#4 23749113#5 23749079#0 23749079#1 23749079#1.237 22650375#3 22650375#4 22650378#0 22650378#1 22650378#2 22650378#3 356792291#1 356792291#2 356792299#0 356792299#1 356792299#1.147 22650364#1 22650364#2 22650364#3 22650365" /> 
  </flow>

  <flow begin="0.00" color="magenta" departLane="random" departSpeed="avg" end="3600.00" id="f_alpha_to_lcsb" period="exp(0.025)" type="out_t_pg_cfm_k_jm_m_lcm_e_m">
    <route edges="27999818#0 27999818#1 23749113#3 23749113#4 23749113#5 23749079#0 23749079#1 23749079#1.237 22650375#3 22650375#4 22650378#0 22650378#1 22650378#2 22650378#3 356792291#1 356792291#2 356792299#0 356792299#1 356792299#1.147 22650364#1 22650364#2 22650364#3 22650365" /> 
  </flow>

  <flow begin="0.00" color="magenta" departLane="random" departSpeed="avg" end="3600.00" id="f_onation_to_lcsb" period="exp(0.017)" type="out_t_pg_cfm_k_jm_m_lcm_e_m">
    <route edges="-620127931#1 -620127931#0 -100376010 -510762961 356792291#5 356792291#6 356792291#1 356792291#2 356792299#0 356792299#1 356792299#1.147 22650364#1 22650364#2 22650364#3 22650365" /> 
  </flow>
</routes>
